ROMS/TOMS Framework: Dec 16, 2013
===================

Copyright (c) 2002-2013 The ROMS/TOMS Group
  Licensed under a MIT/X style license
  See License_ROMS.txt

svn: $HeadURL: https://www.myroms.org/svn/src/trunk/ROMS/Version $
svn: $LastChangedBy: arango $
svn: $LastChangedRevision: 705 $
svn: $LastChangedDate: 2013-12-16 19:23:03 -0500 (Mon, 16 Dec 2013) $
