ROMS/TOMS Framework: Apr 3, 2014
===================

Copyright (c) 2002-2014 The ROMS/TOMS Group
  Licensed under a MIT/X style license
  See License_ROMS.txt

svn: $HeadURL: https://www.myroms.org/svn/src/trunk/ROMS/Version $
svn: $LastChangedBy: arango $
svn: $LastChangedRevision: 730 $
svn: $LastChangedDate: 2014-04-03 16:23:46 -0400 (Thu, 03 Apr 2014) $
