ROMS/TOMS Framework:  Jan 23, 2014
===================

Copyright (c) 2002-2014 The ROMS/TOMS Group
  Licensed under a MIT/X style license
  See License_ROMS.txt

svn: $HeadURL: https://www.myroms.org/svn/src/trunk/ROMS/Version $
svn: $LastChangedBy: arango $
svn: $LastChangedRevision: 709 $
svn: $LastChangedDate: 2014-01-23 15:09:38 -0500 (Thu, 23 Jan 2014) $
