ROMS/TOMS Framework: Nov 4, 2013
===================

Copyright (c) 2002-2013 The ROMS/TOMS Group
  Licensed under a MIT/X style license
  See License_ROMS.txt

svn: $HeadURL: https://www.myroms.org/svn/src/trunk/ROMS/Version $
svn: $LastChangedBy: arango $
svn: $LastChangedRevision: 696 $
svn: $LastChangedDate: 2013-11-04 12:30:30 -0500 (Mon, 04 Nov 2013) $
