ROMS/TOMS Framework: Sep 30, 2013
===================

Copyright (c) 2002-2013 The ROMS/TOMS Group
  Licensed under a MIT/X style license
  See License_ROMS.txt

svn: $HeadURL: https://www.myroms.org/svn/src/trunk/ROMS/Version $
svn: $LastChangedBy: arango $
svn: $LastChangedRevision: 687 $
svn: $LastChangedDate: 2013-09-30 21:39:08 -0400 (Mon, 30 Sep 2013) $
