ROMS/TOMS Framework:  July 10, 2015
===================

Copyright (c) 2002-2015 The ROMS/TOMS Group
  Licensed under a MIT/X style license
  See License_ROMS.txt

svn: $HeadURL: https://www.myroms.org/svn/src/trunk/ROMS/Version $
svn: $LastChangedBy: arango $
svn: $LastChangedRevision: 768 $
svn: $LastChangedDate: 2015-07-10 16:05:29 -0400 (Fri, 10 Jul 2015) $