ROMS/TOMS Framework: June 23, 2015
===================

Copyright (c) 2002-2015 The ROMS/TOMS Group
  Licensed under a MIT/X style license
  See License_ROMS.txt

svn: $HeadURL: https://www.myroms.org/svn/src/trunk/ROMS/Version $
svn: $LastChangedBy: arango $
svn: $LastChangedRevision: 766 $
svn: $LastChangedDate: 2015-06-23 20:51:28 -0400 (Tue, 23 Jun 2015) $